data_333SiO2-1
_audit_creation_date              2024-01-25
_audit_creation_method            'Materials Studio'
_symmetry_space_group_name_H-M    'P1'
_symmetry_Int_Tables_number       1
_symmetry_cell_setting            triclinic
loop_
_symmetry_equiv_pos_as_xyz
  x,y,z
_cell_length_a                    14.6913
_cell_length_b                    14.6913
_cell_length_c                    15.9631
_cell_angle_alpha                 90.0000
_cell_angle_beta                  90.0000
_cell_angle_gamma                 120.0000
loop_
_atom_site_label
_atom_site_type_symbol
_atom_site_fract_x
_atom_site_fract_y
_atom_site_fract_z
_atom_site_U_iso_or_equiv
_atom_site_adp_type
_atom_site_occupancy
Si0    Si    0.15745  -0.00000   0.11111   0.00000  Uiso   1.00
Si1    Si   -0.00000   0.15745   0.22222   0.00000  Uiso   1.00
Si2    Si    0.17589   0.17589   0.00000   0.00000  Uiso   1.00
Si3    Si    0.15745  -0.00000   0.44444   0.00000  Uiso   1.00
Si4    Si   -0.00000   0.15745   0.55556   0.00000  Uiso   1.00
Si5    Si    0.17589   0.17589   0.33333   0.00000  Uiso   1.00
Si6    Si    0.15745  -0.00000   0.77778   0.00000  Uiso   1.00
Si7    Si   -0.00000   0.15745   0.88889   0.00000  Uiso   1.00
Si8    Si    0.17589   0.17589   0.66667   0.00000  Uiso   1.00
Si9    Si    0.15745   0.33333   0.11111   0.00000  Uiso   1.00
Si10   Si   -0.00000   0.49078   0.22222   0.00000  Uiso   1.00
Si11   Si    0.17589   0.50922   0.00000   0.00000  Uiso   1.00
Si12   Si    0.15745   0.33333   0.44444   0.00000  Uiso   1.00
Si13   Si   -0.00000   0.49078   0.55556   0.00000  Uiso   1.00
Si14   Si    0.17589   0.50922   0.33333   0.00000  Uiso   1.00
Si15   Si    0.15745   0.33333   0.77778   0.00000  Uiso   1.00
Si16   Si   -0.00000   0.49078   0.88889   0.00000  Uiso   1.00
Si17   Si    0.17589   0.50922   0.66667   0.00000  Uiso   1.00
Si18   Si    0.15745   0.66667   0.11111   0.00000  Uiso   1.00
Si19   Si    0.00000   0.82411   0.22222   0.00000  Uiso   1.00
Si20   Si    0.17589   0.84255   0.00000   0.00000  Uiso   1.00
Si21   Si    0.15745   0.66667   0.44444   0.00000  Uiso   1.00
Si22   Si    0.00000   0.82411   0.55556   0.00000  Uiso   1.00
Si23   Si    0.17589   0.84255   0.33333   0.00000  Uiso   1.00
Si24   Si    0.15745   0.66667   0.77778   0.00000  Uiso   1.00
Si25   Si    0.00000   0.82411   0.88889   0.00000  Uiso   1.00
Si26   Si    0.17589   0.84255   0.66667   0.00000  Uiso   1.00
Si27   Si    0.49078  -0.00000   0.11111   0.00000  Uiso   1.00
Si28   Si    0.33333   0.15745   0.22222   0.00000  Uiso   1.00
Si29   Si    0.50922   0.17589   0.00000   0.00000  Uiso   1.00
Si30   Si    0.49078  -0.00000   0.44444   0.00000  Uiso   1.00
Si31   Si    0.33333   0.15745   0.55556   0.00000  Uiso   1.00
Si32   Si    0.50922   0.17589   0.33333   0.00000  Uiso   1.00
Si33   Si    0.49078  -0.00000   0.77778   0.00000  Uiso   1.00
Si34   Si    0.33333   0.15745   0.88889   0.00000  Uiso   1.00
Si35   Si    0.50922   0.17589   0.66667   0.00000  Uiso   1.00
Si36   Si    0.49078   0.33333   0.11111   0.00000  Uiso   1.00
Si37   Si    0.33333   0.49078   0.22222   0.00000  Uiso   1.00
Si38   Si    0.50922   0.50922   0.00000   0.00000  Uiso   1.00
Si39   Si    0.49078   0.33333   0.44444   0.00000  Uiso   1.00
Si40   Si    0.33333   0.49078   0.55556   0.00000  Uiso   1.00
Si41   Si    0.50922   0.50922   0.33333   0.00000  Uiso   1.00
Si42   Si    0.49078   0.33333   0.77778   0.00000  Uiso   1.00
Si43   Si    0.33333   0.49078   0.88889   0.00000  Uiso   1.00
Si44   Si    0.50922   0.50922   0.66667   0.00000  Uiso   1.00
Si45   Si    0.49078   0.66667   0.11111   0.00000  Uiso   1.00
Si46   Si    0.33333   0.82411   0.22222   0.00000  Uiso   1.00
Si47   Si    0.50922   0.84255   0.00000   0.00000  Uiso   1.00
Si48   Si    0.49078   0.66667   0.44444   0.00000  Uiso   1.00
Si49   Si    0.33333   0.82411   0.55556   0.00000  Uiso   1.00
Si50   Si    0.50922   0.84255   0.33333   0.00000  Uiso   1.00
Si51   Si    0.49078   0.66667   0.77778   0.00000  Uiso   1.00
Si52   Si    0.33333   0.82411   0.88889   0.00000  Uiso   1.00
Si53   Si    0.50922   0.84255   0.66667   0.00000  Uiso   1.00
Si54   Si    0.82411   0.00000   0.11111   0.00000  Uiso   1.00
Si55   Si    0.66667   0.15745   0.22222   0.00000  Uiso   1.00
Si56   Si    0.84255   0.17589  -0.00000   0.00000  Uiso   1.00
Si57   Si    0.82411   0.00000   0.44444   0.00000  Uiso   1.00
Si58   Si    0.66667   0.15745   0.55556   0.00000  Uiso   1.00
Si59   Si    0.84255   0.17589   0.33333   0.00000  Uiso   1.00
Si60   Si    0.82411   0.00000   0.77778   0.00000  Uiso   1.00
Si61   Si    0.66667   0.15745   0.88889   0.00000  Uiso   1.00
Si62   Si    0.84255   0.17589   0.66667   0.00000  Uiso   1.00
Si63   Si    0.82411   0.33333   0.11111   0.00000  Uiso   1.00
Si64   Si    0.66667   0.49078   0.22222   0.00000  Uiso   1.00
Si65   Si    0.84255   0.50922   0.00000   0.00000  Uiso   1.00
Si66   Si    0.82411   0.33333   0.44444   0.00000  Uiso   1.00
Si67   Si    0.66667   0.49078   0.55556   0.00000  Uiso   1.00
Si68   Si    0.84255   0.50922   0.33333   0.00000  Uiso   1.00
Si69   Si    0.82411   0.33333   0.77778   0.00000  Uiso   1.00
Si70   Si    0.66667   0.49078   0.88889   0.00000  Uiso   1.00
Si71   Si    0.84255   0.50922   0.66667   0.00000  Uiso   1.00
Si72   Si    0.82411   0.66667   0.11111   0.00000  Uiso   1.00
Si73   Si    0.66667   0.82411   0.22222   0.00000  Uiso   1.00
Si74   Si    0.84255   0.84255   0.00000   0.00000  Uiso   1.00
Si75   Si    0.82411   0.66667   0.44444   0.00000  Uiso   1.00
Si76   Si    0.66667   0.82411   0.55556   0.00000  Uiso   1.00
Si77   Si    0.84255   0.84255   0.33333   0.00000  Uiso   1.00
Si78   Si    0.82411   0.66667   0.77778   0.00000  Uiso   1.00
Si79   Si    0.66667   0.82411   0.88889   0.00000  Uiso   1.00
Si80   Si    0.84255   0.84255   0.66667   0.00000  Uiso   1.00
O108   O     0.13880   0.08784   0.07022   0.00000  Uiso   1.00
O109   O     0.08784   0.13880   0.26312   0.00000  Uiso   1.00
O110   O     0.13880   0.08784   0.40355   0.00000  Uiso   1.00
O111   O     0.08784   0.13880   0.92978   0.00000  Uiso   1.00
O112   O     0.08784   0.13880   0.59645   0.00000  Uiso   1.00
O113   O     0.13880   0.08784   0.73688   0.00000  Uiso   1.00
O114   O     0.05096   0.24549   0.15201   0.00000  Uiso   1.00
O115   O     0.19453   0.28237   0.04090   0.00000  Uiso   1.00
O116   O     0.13880   0.42118   0.07022   0.00000  Uiso   1.00
O117   O     0.05096   0.24549   0.48534   0.00000  Uiso   1.00
O118   O     0.19453   0.28237   0.37423   0.00000  Uiso   1.00
O119   O     0.08784   0.47213   0.26312   0.00000  Uiso   1.00
O120   O     0.13880   0.42118   0.40355   0.00000  Uiso   1.00
O121   O     0.05096   0.24549   0.81867   0.00000  Uiso   1.00
O122   O     0.19453   0.28237   0.70756   0.00000  Uiso   1.00
O123   O     0.08784   0.47213   0.92978   0.00000  Uiso   1.00
O124   O     0.08784   0.47213   0.59645   0.00000  Uiso   1.00
O125   O     0.13880   0.42118   0.73688   0.00000  Uiso   1.00
O126   O     0.05096   0.57882   0.15201   0.00000  Uiso   1.00
O127   O     0.19453   0.61571   0.04090   0.00000  Uiso   1.00
O128   O     0.05096   0.91216   0.15201   0.00000  Uiso   1.00
O129   O     0.13880   0.75451   0.07022   0.00000  Uiso   1.00
O130   O     0.19453   0.94904   0.04090   0.00000  Uiso   1.00
O131   O     0.05096   0.57882   0.48534   0.00000  Uiso   1.00
O132   O     0.19453   0.61571   0.37423   0.00000  Uiso   1.00
O133   O     0.05096   0.91216   0.48534   0.00000  Uiso   1.00
O134   O     0.08784   0.80547   0.26312   0.00000  Uiso   1.00
O135   O     0.13880   0.75451   0.40355   0.00000  Uiso   1.00
O136   O     0.19453   0.94904   0.37423   0.00000  Uiso   1.00
O137   O     0.05096   0.57882   0.81867   0.00000  Uiso   1.00
O138   O     0.19453   0.61571   0.70756   0.00000  Uiso   1.00
O139   O     0.08784   0.80547   0.92978   0.00000  Uiso   1.00
O140   O     0.05096   0.91216   0.81867   0.00000  Uiso   1.00
O141   O     0.08784   0.80547   0.59645   0.00000  Uiso   1.00
O142   O     0.13880   0.75451   0.73688   0.00000  Uiso   1.00
O143   O     0.19453   0.94904   0.70756   0.00000  Uiso   1.00
O144   O     0.24549   0.05096   0.18133   0.00000  Uiso   1.00
O145   O     0.28237   0.19453   0.29244   0.00000  Uiso   1.00
O146   O     0.47213   0.08784   0.07022   0.00000  Uiso   1.00
O147   O     0.24549   0.05096   0.51466   0.00000  Uiso   1.00
O148   O     0.28237   0.19453   0.62577   0.00000  Uiso   1.00
O149   O     0.42118   0.13880   0.26312   0.00000  Uiso   1.00
O150   O     0.47213   0.08784   0.40355   0.00000  Uiso   1.00
O151   O     0.24549   0.05096   0.84799   0.00000  Uiso   1.00
O152   O     0.42118   0.13880   0.92978   0.00000  Uiso   1.00
O153   O     0.28237   0.19453   0.95910   0.00000  Uiso   1.00
O154   O     0.42118   0.13880   0.59645   0.00000  Uiso   1.00
O155   O     0.47213   0.08784   0.73688   0.00000  Uiso   1.00
O156   O     0.38429   0.24549   0.15201   0.00000  Uiso   1.00
O157   O     0.52787   0.28237   0.04090   0.00000  Uiso   1.00
O158   O     0.24549   0.38429   0.18133   0.00000  Uiso   1.00
O159   O     0.28237   0.52787   0.29244   0.00000  Uiso   1.00
O160   O     0.47213   0.42118   0.07022   0.00000  Uiso   1.00
O161   O     0.38429   0.24549   0.48534   0.00000  Uiso   1.00
O162   O     0.52787   0.28237   0.37423   0.00000  Uiso   1.00
O163   O     0.24549   0.38429   0.51466   0.00000  Uiso   1.00
O164   O     0.28237   0.52787   0.62577   0.00000  Uiso   1.00
O165   O     0.42118   0.47213   0.26312   0.00000  Uiso   1.00
O166   O     0.47213   0.42118   0.40355   0.00000  Uiso   1.00
O167   O     0.38429   0.24549   0.81867   0.00000  Uiso   1.00
O168   O     0.52787   0.28237   0.70756   0.00000  Uiso   1.00
O169   O     0.24549   0.38429   0.84799   0.00000  Uiso   1.00
O170   O     0.42118   0.47213   0.92978   0.00000  Uiso   1.00
O171   O     0.28237   0.52787   0.95910   0.00000  Uiso   1.00
O172   O     0.42118   0.47213   0.59645   0.00000  Uiso   1.00
O173   O     0.47213   0.42118   0.73688   0.00000  Uiso   1.00
O174   O     0.38429   0.57882   0.15201   0.00000  Uiso   1.00
O175   O     0.52787   0.61571   0.04090   0.00000  Uiso   1.00
O176   O     0.24549   0.71763   0.18133   0.00000  Uiso   1.00
O177   O     0.38429   0.91216   0.15201   0.00000  Uiso   1.00
O178   O     0.28237   0.86120   0.29244   0.00000  Uiso   1.00
O179   O     0.47213   0.75451   0.07022   0.00000  Uiso   1.00
O180   O     0.52787   0.94904   0.04090   0.00000  Uiso   1.00
O181   O     0.38429   0.57882   0.48534   0.00000  Uiso   1.00
O182   O     0.52787   0.61571   0.37423   0.00000  Uiso   1.00
O183   O     0.24549   0.71763   0.51466   0.00000  Uiso   1.00
O184   O     0.38429   0.91216   0.48534   0.00000  Uiso   1.00
O185   O     0.28237   0.86120   0.62577   0.00000  Uiso   1.00
O186   O     0.42118   0.80547   0.26312   0.00000  Uiso   1.00
O187   O     0.47213   0.75451   0.40355   0.00000  Uiso   1.00
O188   O     0.52787   0.94904   0.37423   0.00000  Uiso   1.00
O189   O     0.38429   0.57882   0.81867   0.00000  Uiso   1.00
O190   O     0.52787   0.61571   0.70756   0.00000  Uiso   1.00
O191   O     0.24549   0.71763   0.84799   0.00000  Uiso   1.00
O192   O     0.42118   0.80547   0.92978   0.00000  Uiso   1.00
O193   O     0.38429   0.91216   0.81867   0.00000  Uiso   1.00
O194   O     0.28237   0.86120   0.95910   0.00000  Uiso   1.00
O195   O     0.42118   0.80547   0.59645   0.00000  Uiso   1.00
O196   O     0.47213   0.75451   0.73688   0.00000  Uiso   1.00
O197   O     0.52787   0.94904   0.70756   0.00000  Uiso   1.00
O198   O     0.91216   0.05096   0.18133   0.00000  Uiso   1.00
O199   O     0.57882   0.05096   0.18133   0.00000  Uiso   1.00
O200   O     0.61571   0.19453   0.29244   0.00000  Uiso   1.00
O201   O     0.94904   0.19453   0.95910   0.00000  Uiso   1.00
O202   O     0.80547   0.08784   0.07022   0.00000  Uiso   1.00
O203   O     0.91216   0.05096   0.51466   0.00000  Uiso   1.00
O204   O     0.57882   0.05096   0.51466   0.00000  Uiso   1.00
O205   O     0.61571   0.19453   0.62577   0.00000  Uiso   1.00
O206   O     0.94904   0.19453   0.29244   0.00000  Uiso   1.00
O207   O     0.75451   0.13880   0.26312   0.00000  Uiso   1.00
O208   O     0.80547   0.08784   0.40355   0.00000  Uiso   1.00
O209   O     0.91216   0.05096   0.84799   0.00000  Uiso   1.00
O210   O     0.57882   0.05096   0.84799   0.00000  Uiso   1.00
O211   O     0.75451   0.13880   0.92978   0.00000  Uiso   1.00
O212   O     0.61571   0.19453   0.95910   0.00000  Uiso   1.00
O213   O     0.94904   0.19453   0.62577   0.00000  Uiso   1.00
O214   O     0.75451   0.13880   0.59645   0.00000  Uiso   1.00
O215   O     0.80547   0.08784   0.73688   0.00000  Uiso   1.00
O216   O     0.71763   0.24549   0.15201   0.00000  Uiso   1.00
O217   O     0.86120   0.28237   0.04090   0.00000  Uiso   1.00
O218   O     0.91216   0.38429   0.18133   0.00000  Uiso   1.00
O219   O     0.57882   0.38429   0.18133   0.00000  Uiso   1.00
O220   O     0.61571   0.52787   0.29244   0.00000  Uiso   1.00
O221   O     0.94904   0.52787   0.95910   0.00000  Uiso   1.00
O222   O     0.80547   0.42118   0.07022   0.00000  Uiso   1.00
O223   O     0.71763   0.24549   0.48534   0.00000  Uiso   1.00
O224   O     0.86120   0.28237   0.37423   0.00000  Uiso   1.00
O225   O     0.91216   0.38429   0.51466   0.00000  Uiso   1.00
O226   O     0.57882   0.38429   0.51466   0.00000  Uiso   1.00
O227   O     0.61571   0.52787   0.62577   0.00000  Uiso   1.00
O228   O     0.94904   0.52787   0.29244   0.00000  Uiso   1.00
O229   O     0.75451   0.47213   0.26312   0.00000  Uiso   1.00
O230   O     0.80547   0.42118   0.40355   0.00000  Uiso   1.00
O231   O     0.71763   0.24549   0.81867   0.00000  Uiso   1.00
O232   O     0.86120   0.28237   0.70756   0.00000  Uiso   1.00
O233   O     0.91216   0.38429   0.84799   0.00000  Uiso   1.00
O234   O     0.57882   0.38429   0.84799   0.00000  Uiso   1.00
O235   O     0.75451   0.47213   0.92978   0.00000  Uiso   1.00
O236   O     0.61571   0.52787   0.95910   0.00000  Uiso   1.00
O237   O     0.94904   0.52787   0.62577   0.00000  Uiso   1.00
O238   O     0.75451   0.47213   0.59645   0.00000  Uiso   1.00
O239   O     0.80547   0.42118   0.73688   0.00000  Uiso   1.00
O240   O     0.71763   0.57882   0.15201   0.00000  Uiso   1.00
O241   O     0.86120   0.61571   0.04090   0.00000  Uiso   1.00
O242   O     0.91216   0.71763   0.18133   0.00000  Uiso   1.00
O243   O     0.57882   0.71763   0.18133   0.00000  Uiso   1.00
O244   O     0.71763   0.91216   0.15201   0.00000  Uiso   1.00
O245   O     0.61571   0.86120   0.29244   0.00000  Uiso   1.00
O246   O     0.94904   0.86120   0.95910   0.00000  Uiso   1.00
O247   O     0.80547   0.75451   0.07022   0.00000  Uiso   1.00
O248   O     0.86120   0.94904   0.04090   0.00000  Uiso   1.00
O249   O     0.71763   0.57882   0.48534   0.00000  Uiso   1.00
O250   O     0.86120   0.61571   0.37423   0.00000  Uiso   1.00
O251   O     0.91216   0.71763   0.51466   0.00000  Uiso   1.00
O252   O     0.57882   0.71763   0.51466   0.00000  Uiso   1.00
O253   O     0.71763   0.91216   0.48534   0.00000  Uiso   1.00
O254   O     0.61571   0.86120   0.62577   0.00000  Uiso   1.00
O255   O     0.94904   0.86120   0.29244   0.00000  Uiso   1.00
O256   O     0.75451   0.80547   0.26312   0.00000  Uiso   1.00
O257   O     0.80547   0.75451   0.40355   0.00000  Uiso   1.00
O258   O     0.86120   0.94904   0.37423   0.00000  Uiso   1.00
O259   O     0.71763   0.57882   0.81867   0.00000  Uiso   1.00
O260   O     0.86120   0.61571   0.70756   0.00000  Uiso   1.00
O261   O     0.91216   0.71763   0.84799   0.00000  Uiso   1.00
O262   O     0.57882   0.71763   0.84799   0.00000  Uiso   1.00
O263   O     0.75451   0.80547   0.92978   0.00000  Uiso   1.00
O264   O     0.71763   0.91216   0.81867   0.00000  Uiso   1.00
O265   O     0.61571   0.86120   0.95910   0.00000  Uiso   1.00
O266   O     0.94904   0.86120   0.62577   0.00000  Uiso   1.00
O267   O     0.75451   0.80547   0.59645   0.00000  Uiso   1.00
O268   O     0.80547   0.75451   0.73688   0.00000  Uiso   1.00
O269   O     0.86120   0.94904   0.70756   0.00000  Uiso   1.00
loop_
_geom_bond_atom_site_label_1
_geom_bond_atom_site_label_2
_geom_bond_distance
_geom_bond_site_symmetry_2
_ccdc_geom_bond_type
Si0    O108    1.587   .     S
Si0    O144    1.588   .     S
Si0    O128    1.587   1_545 S
Si0    O130    1.588   1_545 S
Si1    O109    1.587   .     S
Si1    O114    1.588   .     S
Si1    O198    1.587   1_455 S
Si1    O206    1.588   1_455 S
Si2    O108    1.588   .     S
Si2    O115    1.587   .     S
Si2    O111    1.588   1_554 S
Si2    O153    1.587   1_554 S
Si3    O110    1.587   .     S
Si3    O147    1.588   .     S
Si3    O133    1.587   1_545 S
Si3    O136    1.588   1_545 S
Si4    O112    1.587   .     S
Si4    O117    1.588   .     S
Si4    O203    1.587   1_455 S
Si4    O213    1.588   1_455 S
Si5    O109    1.588   .     S
Si5    O110    1.588   .     S
Si5    O118    1.587   .     S
Si5    O145    1.587   .     S
Si6    O113    1.587   .     S
Si6    O151    1.588   .     S
Si6    O140    1.587   1_545 S
Si6    O143    1.588   1_545 S
Si7    O111    1.587   .     S
Si7    O121    1.588   .     S
Si7    O201    1.588   1_455 S
Si7    O209    1.587   1_455 S
Si8    O112    1.588   .     S
Si8    O113    1.588   .     S
Si8    O122    1.587   .     S
Si8    O148    1.587   .     S
Si9    O114    1.587   .     S
Si9    O115    1.588   .     S
Si9    O116    1.587   .     S
Si9    O158    1.588   .     S
Si10   O119    1.587   .     S
Si10   O126    1.588   .     S
Si10   O218    1.587   1_455 S
Si10   O228    1.588   1_455 S
Si11   O116    1.588   .     S
Si11   O127    1.587   .     S
Si11   O123    1.588   1_554 S
Si11   O171    1.587   1_554 S
Si12   O117    1.587   .     S
Si12   O118    1.588   .     S
Si12   O120    1.587   .     S
Si12   O163    1.588   .     S
Si13   O124    1.587   .     S
Si13   O131    1.588   .     S
Si13   O225    1.587   1_455 S
Si13   O237    1.588   1_455 S
Si14   O119    1.588   .     S
Si14   O120    1.588   .     S
Si14   O132    1.587   .     S
Si14   O159    1.587   .     S
Si15   O121    1.587   .     S
Si15   O122    1.588   .     S
Si15   O125    1.587   .     S
Si15   O169    1.588   .     S
Si16   O123    1.587   .     S
Si16   O137    1.588   .     S
Si16   O221    1.588   1_455 S
Si16   O233    1.587   1_455 S
Si17   O124    1.588   .     S
Si17   O125    1.588   .     S
Si17   O138    1.587   .     S
Si17   O164    1.587   .     S
Si18   O126    1.587   .     S
Si18   O127    1.588   .     S
Si18   O129    1.587   .     S
Si18   O176    1.588   .     S
Si19   O128    1.588   .     S
Si19   O134    1.587   .     S
Si19   O242    1.587   1_455 S
Si19   O255    1.588   1_455 S
Si20   O129    1.588   .     S
Si20   O130    1.587   .     S
Si20   O139    1.588   1_554 S
Si20   O194    1.587   1_554 S
Si21   O131    1.587   .     S
Si21   O132    1.588   .     S
Si21   O135    1.587   .     S
Si21   O183    1.588   .     S
Si22   O133    1.588   .     S
Si22   O141    1.587   .     S
Si22   O251    1.587   1_455 S
Si22   O266    1.588   1_455 S
Si23   O134    1.588   .     S
Si23   O135    1.588   .     S
Si23   O136    1.587   .     S
Si23   O178    1.587   .     S
Si24   O137    1.587   .     S
Si24   O138    1.588   .     S
Si24   O142    1.587   .     S
Si24   O191    1.588   .     S
Si25   O139    1.587   .     S
Si25   O140    1.588   .     S
Si25   O246    1.588   1_455 S
Si25   O261    1.587   1_455 S
Si26   O141    1.588   .     S
Si26   O142    1.588   .     S
Si26   O143    1.587   .     S
Si26   O185    1.587   .     S
Si27   O146    1.587   .     S
Si27   O199    1.588   .     S
Si27   O177    1.587   1_545 S
Si27   O180    1.588   1_545 S
Si28   O144    1.587   .     S
Si28   O145    1.588   .     S
Si28   O149    1.587   .     S
Si28   O156    1.588   .     S
Si29   O146    1.588   .     S
Si29   O157    1.587   .     S
Si29   O152    1.588   1_554 S
Si29   O212    1.587   1_554 S
Si30   O150    1.587   .     S
Si30   O204    1.588   .     S
Si30   O184    1.587   1_545 S
Si30   O188    1.588   1_545 S
Si31   O147    1.587   .     S
Si31   O148    1.588   .     S
Si31   O154    1.587   .     S
Si31   O161    1.588   .     S
Si32   O149    1.588   .     S
Si32   O150    1.588   .     S
Si32   O162    1.587   .     S
Si32   O200    1.587   .     S
Si33   O155    1.587   .     S
Si33   O210    1.588   .     S
Si33   O193    1.587   1_545 S
Si33   O197    1.588   1_545 S
Si34   O151    1.587   .     S
Si34   O152    1.587   .     S
Si34   O153    1.588   .     S
Si34   O167    1.588   .     S
Si35   O154    1.588   .     S
Si35   O155    1.588   .     S
Si35   O168    1.587   .     S
Si35   O205    1.587   .     S
Si36   O156    1.587   .     S
Si36   O157    1.588   .     S
Si36   O160    1.587   .     S
Si36   O219    1.588   .     S
Si37   O158    1.587   .     S
Si37   O159    1.588   .     S
Si37   O165    1.587   .     S
Si37   O174    1.588   .     S
Si38   O160    1.588   .     S
Si38   O175    1.587   .     S
Si38   O170    1.588   1_554 S
Si38   O236    1.587   1_554 S
Si39   O161    1.587   .     S
Si39   O162    1.588   .     S
Si39   O166    1.587   .     S
Si39   O226    1.588   .     S
Si40   O163    1.587   .     S
Si40   O164    1.588   .     S
Si40   O172    1.587   .     S
Si40   O181    1.588   .     S
Si41   O165    1.588   .     S
Si41   O166    1.588   .     S
Si41   O182    1.587   .     S
Si41   O220    1.587   .     S
Si42   O167    1.587   .     S
Si42   O168    1.588   .     S
Si42   O173    1.587   .     S
Si42   O234    1.588   .     S
Si43   O169    1.587   .     S
Si43   O170    1.587   .     S
Si43   O171    1.588   .     S
Si43   O189    1.588   .     S
Si44   O172    1.588   .     S
Si44   O173    1.588   .     S
Si44   O190    1.587   .     S
Si44   O227    1.587   .     S
Si45   O174    1.587   .     S
Si45   O175    1.588   .     S
Si45   O179    1.587   .     S
Si45   O243    1.588   .     S
Si46   O176    1.587   .     S
Si46   O177    1.588   .     S
Si46   O178    1.588   .     S
Si46   O186    1.587   .     S
Si47   O179    1.588   .     S
Si47   O180    1.587   .     S
Si47   O192    1.588   1_554 S
Si47   O265    1.587   1_554 S
Si48   O181    1.587   .     S
Si48   O182    1.588   .     S
Si48   O187    1.587   .     S
Si48   O252    1.588   .     S
Si49   O183    1.587   .     S
Si49   O184    1.588   .     S
Si49   O185    1.588   .     S
Si49   O195    1.587   .     S
Si50   O186    1.588   .     S
Si50   O187    1.588   .     S
Si50   O188    1.587   .     S
Si50   O245    1.587   .     S
Si51   O189    1.587   .     S
Si51   O190    1.588   .     S
Si51   O196    1.587   .     S
Si51   O262    1.588   .     S
Si52   O191    1.587   .     S
Si52   O192    1.587   .     S
Si52   O193    1.588   .     S
Si52   O194    1.588   .     S
Si53   O195    1.588   .     S
Si53   O196    1.588   .     S
Si53   O197    1.587   .     S
Si53   O254    1.587   .     S
Si54   O198    1.588   .     S
Si54   O202    1.587   .     S
Si54   O244    1.587   1_545 S
Si54   O248    1.588   1_545 S
Si55   O199    1.587   .     S
Si55   O200    1.588   .     S
Si55   O207    1.587   .     S
Si55   O216    1.588   .     S
Si56   O202    1.588   .     S
Si56   O217    1.587   .     S
Si56   O201    1.587   1_554 S
Si56   O211    1.588   1_554 S
Si57   O203    1.588   .     S
Si57   O208    1.587   .     S
Si57   O253    1.587   1_545 S
Si57   O258    1.588   1_545 S
Si58   O204    1.587   .     S
Si58   O205    1.588   .     S
Si58   O214    1.587   .     S
Si58   O223    1.588   .     S
Si59   O206    1.587   .     S
Si59   O207    1.588   .     S
Si59   O208    1.588   .     S
Si59   O224    1.587   .     S
Si60   O209    1.588   .     S
Si60   O215    1.587   .     S
Si60   O264    1.587   1_545 S
Si60   O269    1.588   1_545 S
Si61   O210    1.587   .     S
Si61   O211    1.587   .     S
Si61   O212    1.588   .     S
Si61   O231    1.588   .     S
Si62   O213    1.587   .     S
Si62   O214    1.588   .     S
Si62   O215    1.588   .     S
Si62   O232    1.587   .     S
Si63   O216    1.587   .     S
Si63   O217    1.588   .     S
Si63   O218    1.588   .     S
Si63   O222    1.587   .     S
Si64   O219    1.587   .     S
Si64   O220    1.588   .     S
Si64   O229    1.587   .     S
Si64   O240    1.588   .     S
Si65   O222    1.588   .     S
Si65   O241    1.587   .     S
Si65   O221    1.587   1_554 S
Si65   O235    1.588   1_554 S
Si66   O223    1.587   .     S
Si66   O224    1.588   .     S
Si66   O225    1.588   .     S
Si66   O230    1.587   .     S
Si67   O226    1.587   .     S
Si67   O227    1.588   .     S
Si67   O238    1.587   .     S
Si67   O249    1.588   .     S
Si68   O228    1.587   .     S
Si68   O229    1.588   .     S
Si68   O230    1.588   .     S
Si68   O250    1.587   .     S
Si69   O231    1.587   .     S
Si69   O232    1.588   .     S
Si69   O233    1.588   .     S
Si69   O239    1.587   .     S
Si70   O234    1.587   .     S
Si70   O235    1.587   .     S
Si70   O236    1.588   .     S
Si70   O259    1.588   .     S
Si71   O237    1.587   .     S
Si71   O238    1.588   .     S
Si71   O239    1.588   .     S
Si71   O260    1.587   .     S
Si72   O240    1.587   .     S
Si72   O241    1.588   .     S
Si72   O242    1.588   .     S
Si72   O247    1.587   .     S
Si73   O243    1.587   .     S
Si73   O244    1.588   .     S
Si73   O245    1.588   .     S
Si73   O256    1.587   .     S
Si74   O247    1.588   .     S
Si74   O248    1.587   .     S
Si74   O246    1.587   1_554 S
Si74   O263    1.588   1_554 S
Si75   O249    1.587   .     S
Si75   O250    1.588   .     S
Si75   O251    1.588   .     S
Si75   O257    1.587   .     S
Si76   O252    1.587   .     S
Si76   O253    1.588   .     S
Si76   O254    1.588   .     S
Si76   O267    1.587   .     S
Si77   O255    1.587   .     S
Si77   O256    1.588   .     S
Si77   O257    1.588   .     S
Si77   O258    1.587   .     S
Si78   O259    1.587   .     S
Si78   O260    1.588   .     S
Si78   O261    1.588   .     S
Si78   O268    1.587   .     S
Si79   O262    1.587   .     S
Si79   O263    1.587   .     S
Si79   O264    1.588   .     S
Si79   O265    1.588   .     S
Si80   O266    1.587   .     S
Si80   O267    1.588   .     S
Si80   O268    1.588   .     S
Si80   O269    1.587   .     S
O111   Si2     1.588   1_556 S
O123   Si11    1.588   1_556 S
O128   Si0     1.587   1_565 S
O130   Si0     1.588   1_565 S
O133   Si3     1.587   1_565 S
O136   Si3     1.588   1_565 S
O139   Si20    1.588   1_556 S
O140   Si6     1.587   1_565 S
O143   Si6     1.588   1_565 S
O152   Si29    1.588   1_556 S
O153   Si2     1.587   1_556 S
O170   Si38    1.588   1_556 S
O171   Si11    1.587   1_556 S
O177   Si27    1.587   1_565 S
O180   Si27    1.588   1_565 S
O184   Si30    1.587   1_565 S
O188   Si30    1.588   1_565 S
O192   Si47    1.588   1_556 S
O193   Si33    1.587   1_565 S
O194   Si20    1.587   1_556 S
O197   Si33    1.588   1_565 S
O198   Si1     1.587   1_655 S
O201   Si7     1.588   1_655 S
O201   Si56    1.587   1_556 S
O203   Si4     1.587   1_655 S
O206   Si1     1.588   1_655 S
O209   Si7     1.587   1_655 S
O211   Si56    1.588   1_556 S
O212   Si29    1.587   1_556 S
O213   Si4     1.588   1_655 S
O218   Si10    1.587   1_655 S
O221   Si16    1.588   1_655 S
O221   Si65    1.587   1_556 S
O225   Si13    1.587   1_655 S
O228   Si10    1.588   1_655 S
O233   Si16    1.587   1_655 S
O235   Si65    1.588   1_556 S
O236   Si38    1.587   1_556 S
O237   Si13    1.588   1_655 S
O242   Si19    1.587   1_655 S
O244   Si54    1.587   1_565 S
O246   Si25    1.588   1_655 S
O246   Si74    1.587   1_556 S
O248   Si54    1.588   1_565 S
O251   Si22    1.587   1_655 S
O253   Si57    1.587   1_565 S
O255   Si19    1.588   1_655 S
O258   Si57    1.588   1_565 S
O261   Si25    1.587   1_655 S
O263   Si74    1.588   1_556 S
O264   Si60    1.587   1_565 S
O265   Si47    1.587   1_556 S
O266   Si22    1.588   1_655 S
O269   Si60    1.588   1_565 S
